/*--------------------------------*- C++ -*----------------------------------*\
| =========                 |                                                 |
| \\      /  F ield         | OpenFOAM: The Open Source CFD Toolbox           |
|  \\    /   O peration     | Version:  2.3.1                                 |
|   \\  /    A nd           | Web:      www.OpenFOAM.org                      |
|    \\/     M anipulation  |                                                 |
\*---------------------------------------------------------------------------*/
FoamFile
{
    version     2.0;
    format      ascii;
    class       dictionary;
    location    "constant";
    object      netDict;
}
// * * * * * * * * * * * * * * * * * * * * * * * * * * * * * * * * * * * * * //

porousProperties
{
    Sn                   0.20;
    halfthickness        0.01;
    D   D [0 -2 0 0 0 0 0] (0       0      0    );
    F   F [0 -1 0 0 0 0 0] (0.26   0.2  0.2   );  // (cd90, Cl0,cl0 )
}



// ************************************************************************* //

