
// Input for the nets in openfoam. 
// Author: Hui Cheng
// Email: hui.cheng@uis.no 
FoamFile
{
    version     2.0;
    format      ascii;
    class       dictionary;
    location    "constant";
    object      Fh;
}
// * * * * * * * * * * * * * * * * * * * * * * * * * * * * * * * * * * * * * //
{
numOfFh   4 ;
fh0 ( 0.4209085		0	0 );
fh1 ( 0.4209085		0	0 );
fh2 ( 0.4209085		0	0 );
fh3 ( 0.4209085		0	0 );


}
// ************************************************************************* //


