
// Input for the nets in openfoam. 
// Author: Hui Cheng
// Email: hui.cheng@uis.no 
FoamFile
{
    version     2.0;
    format      ascii;
    class       dictionary;
    location    "constant";
    object      surc;
}
// * * * * * * * * * * * * * * * * * * * * * * * * * * * * * * * * * * * * * //
{
numOfSurf   4 ;
e0 ( 0	1	2 );
e1 ( 0	1	3 );
e2 ( 0	2	3 );
e3 ( 1	2	3 );

}
// ************************************************************************* //


