
// Input for the nets in openfoam.
// Author: Hui Cheng
// Email: hui.cheng@uis.no
FoamFile
{
    version     2.0;
    format      ascii;
    class       dictionary;
    location    "constant";
    object      Fh;
}
// * * * * * * * * * * * * * * * * * * * * * * * * * * * * * * * * * * * * * //
{
numOfFh  160 ;
e0 ( 0	1	20 );
e80 ( 1	21	20 );
e1 ( 20	21	40 );
e81 ( 21	41	40 );
e2 ( 40	41	60 );
e82 ( 41	61	60 );
e3 ( 60	61	80 );
e83 ( 61	81	80 );
e4 ( 1	2	21 );
e84 ( 2	22	21 );
e5 ( 21	22	41 );
e85 ( 22	42	41 );
e6 ( 41	42	61 );
e86 ( 42	62	61 );
e7 ( 61	62	81 );
e87 ( 62	82	81 );
e8 ( 2	3	22 );
e88 ( 3	23	22 );
e9 ( 22	23	42 );
e89 ( 23	43	42 );
e10 ( 42	43	62 );
e90 ( 43	63	62 );
e11 ( 62	63	82 );
e91 ( 63	83	82 );
e12 ( 3	4	23 );
e92 ( 4	24	23 );
e13 ( 23	24	43 );
e93 ( 24	44	43 );
e14 ( 43	44	63 );
e94 ( 44	64	63 );
e15 ( 63	64	83 );
e95 ( 64	84	83 );
e16 ( 4	5	24 );
e96 ( 5	25	24 );
e17 ( 24	25	44 );
e97 ( 25	45	44 );
e18 ( 44	45	64 );
e98 ( 45	65	64 );
e19 ( 64	65	84 );
e99 ( 65	85	84 );
e20 ( 5	6	25 );
e100 ( 6	26	25 );
e21 ( 25	26	45 );
e101 ( 26	46	45 );
e22 ( 45	46	65 );
e102 ( 46	66	65 );
e23 ( 65	66	85 );
e103 ( 66	86	85 );
e24 ( 6	7	26 );
e104 ( 7	27	26 );
e25 ( 26	27	46 );
e105 ( 27	47	46 );
e26 ( 46	47	66 );
e106 ( 47	67	66 );
e27 ( 66	67	86 );
e107 ( 67	87	86 );
e28 ( 7	8	27 );
e108 ( 8	28	27 );
e29 ( 27	28	47 );
e109 ( 28	48	47 );
e30 ( 47	48	67 );
e110 ( 48	68	67 );
e31 ( 67	68	87 );
e111 ( 68	88	87 );
e32 ( 8	9	28 );
e112 ( 9	29	28 );
e33 ( 28	29	48 );
e113 ( 29	49	48 );
e34 ( 48	49	68 );
e114 ( 49	69	68 );
e35 ( 68	69	88 );
e115 ( 69	89	88 );
e36 ( 9	10	29 );
e116 ( 10	30	29 );
e37 ( 29	30	49 );
e117 ( 30	50	49 );
e38 ( 49	50	69 );
e118 ( 50	70	69 );
e39 ( 69	70	89 );
e119 ( 70	90	89 );
e40 ( 10	11	30 );
e120 ( 11	31	30 );
e41 ( 30	31	50 );
e121 ( 31	51	50 );
e42 ( 50	51	70 );
e122 ( 51	71	70 );
e43 ( 70	71	90 );
e123 ( 71	91	90 );
e44 ( 11	12	31 );
e124 ( 12	32	31 );
e45 ( 31	32	51 );
e125 ( 32	52	51 );
e46 ( 51	52	71 );
e126 ( 52	72	71 );
e47 ( 71	72	91 );
e127 ( 72	92	91 );
e48 ( 12	13	32 );
e128 ( 13	33	32 );
e49 ( 32	33	52 );
e129 ( 33	53	52 );
e50 ( 52	53	72 );
e130 ( 53	73	72 );
e51 ( 72	73	92 );
e131 ( 73	93	92 );
e52 ( 13	14	33 );
e132 ( 14	34	33 );
e53 ( 33	34	53 );
e133 ( 34	54	53 );
e54 ( 53	54	73 );
e134 ( 54	74	73 );
e55 ( 73	74	93 );
e135 ( 74	94	93 );
e56 ( 14	15	34 );
e136 ( 15	35	34 );
e57 ( 34	35	54 );
e137 ( 35	55	54 );
e58 ( 54	55	74 );
e138 ( 55	75	74 );
e59 ( 74	75	94 );
e139 ( 75	95	94 );
e60 ( 15	16	35 );
e140 ( 16	36	35 );
e61 ( 35	36	55 );
e141 ( 36	56	55 );
e62 ( 55	56	75 );
e142 ( 56	76	75 );
e63 ( 75	76	95 );
e143 ( 76	96	95 );
e64 ( 16	17	36 );
e144 ( 17	37	36 );
e65 ( 36	37	56 );
e145 ( 37	57	56 );
e66 ( 56	57	76 );
e146 ( 57	77	76 );
e67 ( 76	77	96 );
e147 ( 77	97	96 );
e68 ( 17	18	37 );
e148 ( 18	38	37 );
e69 ( 37	38	57 );
e149 ( 38	58	57 );
e70 ( 57	58	77 );
e150 ( 58	78	77 );
e71 ( 77	78	97 );
e151 ( 78	98	97 );
e72 ( 18	19	38 );
e152 ( 19	39	38 );
e73 ( 38	39	58 );
e153 ( 39	59	58 );
e74 ( 58	59	78 );
e154 ( 59	79	78 );
e75 ( 78	79	98 );
e155 ( 79	99	98 );
e76 ( 19	0	39 );
e156 ( 0	20	39 );
e77 ( 39	20	59 );
e157 ( 20	40	59 );
e78 ( 59	40	79 );
e158 ( 40	60	79 );
e79 ( 79	60	99 );
e159 ( 60	80	99 );

}
// ************************************************************************* //
