/*--------------------------------*- C++ -*----------------------------------*\
| =========                 |                                                 |
| \\      /  F ield         | foam-extend: Open Source CFD                    |
|  \\    /   O peration     | Version:     3.1                                |
|   \\  /    A nd           | Web:         http://www.extend-project.de       |
|    \\/     M anipulation  |                                                 |
\*---------------------------------------------------------------------------*/
FoamFile
{
    version     2.0;
    format      ascii;
    class       dictionary;
    object      controlDict;
}
// * * * * * * * * * * * * * * * * * * * * * * * * * * * * * * * * * * * * * //

application       fsinetFoam;

startFrom         startTime;

startTime         0.0;

stopAt            endTime;

endTime           10.0;

deltaT            0.01;

writeControl      adjustableRunTime;

writeInterval     0.05;

purgeWrite        0;

writeFormat       ascii;

writePrecision    6;

writeCompression  uncompressed;

timeFormat        general;

timePrecision     4;

graphFormat       raw;

runTimeModifiable yes;

adjustTimeStep    no;

maxCo             0.5;

maxDeltaT         0.01;
// ************************************************************************* //
