/*--------------------------------*- C++ -*----------------------------------*\
| =========                 |                                                 |
| \\      /  F ield         | foam-extend: Open Source CFD                    |
|  \\    /   O peration     | Version:     3.1                                |
|   \\  /    A nd           | Web:         http://www.extend-project.de       |
|    \\/     M anipulation  |                                                 |
\*---------------------------------------------------------------------------*/
FoamFile
{
    version     2.0;
    format      ascii;
    class       dictionary;
    object      fvSolution;
}
// * * * * * * * * * * * * * * * * * * * * * * * * * * * * * * * * * * * * * //

solvers
{

    p
    {
        solver                GAMG;
        tolerance             1e-06;
        relTol                0;
        smoother              GaussSeidel;
        cacheAgglomeration    true;
        nCellsInCoarsestLevel 10;
        agglomerator          faceAreaPair;
        mergeLevels           1;
    }


    pFinal
    {
        solver                GAMG;
        tolerance             1e-06;
        relTol                0;
        smoother              GaussSeidel;
        cacheAgglomeration    true;
        nCellsInCoarsestLevel 10;
        agglomerator          faceAreaPair;
        mergeLevels           1;
    }

    "(U|k|epsilon)"
    {
        solver          smoothSolver;
        smoother        symGaussSeidel;
        tolerance       1e-05;
        relTol          0.1;
    }

    "(U|k|epsilon)Final"
    {
        $U;
        relTol          0;
    }

}


    PIMPLE
    {
    nOuterCorrectors          3;
    nCorrectors               3;
    nNonOrthogonalCorrectors  0;
    pRefCell                  0;
    pRefValue                 0;
    }

    relaxationFactors
    {
    p                         0.2;
    U                         0.3;
    k                         1;
    epsilon                   1;
    }
// ************************************************************************* //
