/*--------------------------------*- C++ -*----------------------------------*\
| =========                 |                                                 |
| \\      /  F ield         | foam-extend: Open Source CFD                    |
|  \\    /   O peration     | Version:     3.1                                |
|   \\  /    A nd           | Web:         http://www.extend-project.de       |
|    \\/     M anipulation  |                                                 |
\*---------------------------------------------------------------------------*/
FoamFile
{
    version     2.0;
    format      ascii;
    class       dictionary;
    object      controlDict;
}
// * * * * * * * * * * * * * * * * * * * * * * * * * * * * * * * * * * * * * //

application       dynaPorousNetFoam;

startFrom         startTime;

startTime         0;

stopAt            endTime;

endTime           560.0;

deltaT            0.1;

writeControl      timeStep;

writeInterval     1;

purgeWrite        0;

writeFormat       ascii;

writePrecision    6;

writeCompression  uncompressed;

timeFormat        general;

timePrecision     4;

graphFormat       raw;

runTimeModifiable no;

adjustTimeStep    no;

maxCo             0.1;

maxDeltaT         0.01;
// ************************************************************************* //
