
// Input for the nets in openfoam.
// Author: Hui Cheng
// Email: hui.cheng@uis.no
FoamFile
{
    version     2.0;
    format      ascii;
    class       dictionary;
    location    "constant";
    object      posi;
}
// * * * * * * * * * * * * * * * * * * * * * * * * * * * * * * * * * * * * * //
{
numOfPoint   100 ;
p0 ( 0.127	0.0	0.0 );
p1 ( 0.1207841775694845	0.03924515828561832	0.0 );
p2 ( 0.10274515828561832	0.07464872704114409	0.0 );
p3 ( 0.07464872704114409	0.10274515828561832	0.0 );
p4 ( 0.03924515828561833	0.1207841775694845	0.0 );
p5 ( 7.776507174585693e-18	0.127	0.0 );
p6 ( -0.039245158285618316	0.12078417756948451	0.0 );
p7 ( -0.07464872704114407	0.10274515828561832	0.0 );
p8 ( -0.10274515828561831	0.0746487270411441	0.0 );
p9 ( -0.1207841775694845	0.03924515828561834	0.0 );
p10 ( -0.127	1.5553014349171385e-17	0.0 );
p11 ( -0.12078417756948452	-0.039245158285618253	0.0 );
p12 ( -0.10274515828561834	-0.07464872704114407	0.0 );
p13 ( -0.0746487270411441	-0.10274515828561831	0.0 );
p14 ( -0.039245158285618344	-0.1207841775694845	0.0 );
p15 ( -2.3329521523757076e-17	-0.127	0.0 );
p16 ( 0.0392451582856183	-0.12078417756948451	0.0 );
p17 ( 0.07464872704114406	-0.10274515828561834	0.0 );
p18 ( 0.10274515828561831	-0.07464872704114411	0.0 );
p19 ( 0.1207841775694845	-0.03924515828561835	0.0 );
p20 ( 0.127	0.0	-0.04 );
p21 ( 0.1207841775694845	0.03924515828561832	-0.04 );
p22 ( 0.10274515828561832	0.07464872704114409	-0.04 );
p23 ( 0.07464872704114409	0.10274515828561832	-0.04 );
p24 ( 0.03924515828561833	0.1207841775694845	-0.04 );
p25 ( 7.776507174585693e-18	0.127	-0.04 );
p26 ( -0.039245158285618316	0.12078417756948451	-0.04 );
p27 ( -0.07464872704114407	0.10274515828561832	-0.04 );
p28 ( -0.10274515828561831	0.0746487270411441	-0.04 );
p29 ( -0.1207841775694845	0.03924515828561834	-0.04 );
p30 ( -0.127	1.5553014349171385e-17	-0.04 );
p31 ( -0.12078417756948452	-0.039245158285618253	-0.04 );
p32 ( -0.10274515828561834	-0.07464872704114407	-0.04 );
p33 ( -0.0746487270411441	-0.10274515828561831	-0.04 );
p34 ( -0.039245158285618344	-0.1207841775694845	-0.04 );
p35 ( -2.3329521523757076e-17	-0.127	-0.04 );
p36 ( 0.0392451582856183	-0.12078417756948451	-0.04 );
p37 ( 0.07464872704114406	-0.10274515828561834	-0.04 );
p38 ( 0.10274515828561831	-0.07464872704114411	-0.04 );
p39 ( 0.1207841775694845	-0.03924515828561835	-0.04 );
p40 ( 0.127	0.0	-0.08 );
p41 ( 0.1207841775694845	0.03924515828561832	-0.08 );
p42 ( 0.10274515828561832	0.07464872704114409	-0.08 );
p43 ( 0.07464872704114409	0.10274515828561832	-0.08 );
p44 ( 0.03924515828561833	0.1207841775694845	-0.08 );
p45 ( 7.776507174585693e-18	0.127	-0.08 );
p46 ( -0.039245158285618316	0.12078417756948451	-0.08 );
p47 ( -0.07464872704114407	0.10274515828561832	-0.08 );
p48 ( -0.10274515828561831	0.0746487270411441	-0.08 );
p49 ( -0.1207841775694845	0.03924515828561834	-0.08 );
p50 ( -0.127	1.5553014349171385e-17	-0.08 );
p51 ( -0.12078417756948452	-0.039245158285618253	-0.08 );
p52 ( -0.10274515828561834	-0.07464872704114407	-0.08 );
p53 ( -0.0746487270411441	-0.10274515828561831	-0.08 );
p54 ( -0.039245158285618344	-0.1207841775694845	-0.08 );
p55 ( -2.3329521523757076e-17	-0.127	-0.08 );
p56 ( 0.0392451582856183	-0.12078417756948451	-0.08 );
p57 ( 0.07464872704114406	-0.10274515828561834	-0.08 );
p58 ( 0.10274515828561831	-0.07464872704114411	-0.08 );
p59 ( 0.1207841775694845	-0.03924515828561835	-0.08 );
p60 ( 0.127	0.0	-0.12 );
p61 ( 0.1207841775694845	0.03924515828561832	-0.12 );
p62 ( 0.10274515828561832	0.07464872704114409	-0.12 );
p63 ( 0.07464872704114409	0.10274515828561832	-0.12 );
p64 ( 0.03924515828561833	0.1207841775694845	-0.12 );
p65 ( 7.776507174585693e-18	0.127	-0.12 );
p66 ( -0.039245158285618316	0.12078417756948451	-0.12 );
p67 ( -0.07464872704114407	0.10274515828561832	-0.12 );
p68 ( -0.10274515828561831	0.0746487270411441	-0.12 );
p69 ( -0.1207841775694845	0.03924515828561834	-0.12 );
p70 ( -0.127	1.5553014349171385e-17	-0.12 );
p71 ( -0.12078417756948452	-0.039245158285618253	-0.12 );
p72 ( -0.10274515828561834	-0.07464872704114407	-0.12 );
p73 ( -0.0746487270411441	-0.10274515828561831	-0.12 );
p74 ( -0.039245158285618344	-0.1207841775694845	-0.12 );
p75 ( -2.3329521523757076e-17	-0.127	-0.12 );
p76 ( 0.0392451582856183	-0.12078417756948451	-0.12 );
p77 ( 0.07464872704114406	-0.10274515828561834	-0.12 );
p78 ( 0.10274515828561831	-0.07464872704114411	-0.12 );
p79 ( 0.1207841775694845	-0.03924515828561835	-0.12 );
p80 ( 0.127	0.0	-0.16 );
p81 ( 0.1207841775694845	0.03924515828561832	-0.16 );
p82 ( 0.10274515828561832	0.07464872704114409	-0.16 );
p83 ( 0.07464872704114409	0.10274515828561832	-0.16 );
p84 ( 0.03924515828561833	0.1207841775694845	-0.16 );
p85 ( 7.776507174585693e-18	0.127	-0.16 );
p86 ( -0.039245158285618316	0.12078417756948451	-0.16 );
p87 ( -0.07464872704114407	0.10274515828561832	-0.16 );
p88 ( -0.10274515828561831	0.0746487270411441	-0.16 );
p89 ( -0.1207841775694845	0.03924515828561834	-0.16 );
p90 ( -0.127	1.5553014349171385e-17	-0.16 );
p91 ( -0.12078417756948452	-0.039245158285618253	-0.16 );
p92 ( -0.10274515828561834	-0.07464872704114407	-0.16 );
p93 ( -0.0746487270411441	-0.10274515828561831	-0.16 );
p94 ( -0.039245158285618344	-0.1207841775694845	-0.16 );
p95 ( -2.3329521523757076e-17	-0.127	-0.16 );
p96 ( 0.0392451582856183	-0.12078417756948451	-0.16 );
p97 ( 0.07464872704114406	-0.10274515828561834	-0.16 );
p98 ( 0.10274515828561831	-0.07464872704114411	-0.16 );
p99 ( 0.1207841775694845	-0.03924515828561835	-0.16 );

}
// ************************************************************************* //
